tests/main/reference/hvdc_HvdcPQPropDangling/outputIIDM.xml
<?xml version="1.0" encoding="UTF-8"?>
<iidm:network xmlns:iidm="http://www.powsybl.org/schema/iidm/1_5" id="ieee14bus" caseDate="2017-06-09T10:14:24.146000+02:00" forecastDistance="0" sourceFormat="CIM1">
    <iidm:substation id="_BUS____1_SS" name="BUS    1_SS" country="AF">
        <iidm:voltageLevel id="_BUS____1_VL" name="BUS    1_VL" nominalV="400" topologyKind="BUS_BREAKER">
            <iidm:busBreakerTopology>
                <iidm:bus id="_BUS____1_TN" v="400.02440149822718" angle="0.018239979333999484"/>
            </iidm:busBreakerTopology>
            <iidm:generator id="_Generator___1" name="GEN    1" energySource="OTHER" minP="-9999" maxP="9999" voltageRegulatorOn="true" targetP="1000" targetV="400" targetQ="0" bus="_BUS____1_TN" connectableBus="_BUS____1_TN" p="-1000.1075109514661" q="176.1597038900166">
                <iidm:minMaxReactiveLimits minQ="-999" maxQ="999"/>
            </iidm:generator>
        </iidm:voltageLevel>
    </iidm:substation>
    <iidm:substation id="_BUS____5_SS" name="BUS    5_SS" country="AF">
        <iidm:voltageLevel id="_BUS____5_VL" name="BUS    5_VL" nominalV="400" topologyKind="BUS_BREAKER">
            <iidm:busBreakerTopology>
                <iidm:bus id="_BUS____5_TN" v="400.01110459460546" angle="0"/>
            </iidm:busBreakerTopology>
            <iidm:load id="_Load___5" name="LOAD   5" loadType="UNDEFINED" p0="500" q0="0" bus="_BUS____5_TN" connectableBus="_BUS____5_TN" p="499.99998377264887" q="0"/>
        </iidm:voltageLevel>
    </iidm:substation>
    <iidm:substation id="_BUS___10_SS" name="BUS   10_SS" country="AF">
        <iidm:voltageLevel id="_BUS___10_VL" name="BUS   10_VL" nominalV="400" topologyKind="BUS_BREAKER">
            <iidm:busBreakerTopology>
                <iidm:bus id="_BUS___10_TN" v="399.99999825390023" angle="-0.0089928195661650844"/>
            </iidm:busBreakerTopology>
            <iidm:load id="_Load__10" name="LOAD  10" loadType="UNDEFINED" p0="500" q0="0" bus="_BUS___10_TN" connectableBus="_BUS___10_TN" p="500.02884066975162" q="0"/>
            <iidm:vscConverterStation id="VSCStation1" name="VSCS1" voltageRegulatorOn="true" lossFactor="0" voltageSetpoint="400" reactivePowerSetpoint="0" bus="_BUS___10_TN" connectableBus="_BUS___10_TN" p="100" q="-5.5972296329370046">
                <iidm:reactiveCapabilityCurve>
                    <iidm:point p="-1011" minQ="-300" maxQ="300"/>
                    <iidm:point p="0" minQ="-600" maxQ="400"/>
                    <iidm:point p="1011" minQ="-300" maxQ="300"/>
                </iidm:reactiveCapabilityCurve>
            </iidm:vscConverterStation>
            <iidm:vscConverterStation id="VSCStation1bis" name="VSCS1bis" voltageRegulatorOn="true" lossFactor="0" voltageSetpoint="400" reactivePowerSetpoint="0" bus="_BUS___10_TN" connectableBus="_BUS___10_TN" p="-100" q="-5.5972296329370046">
                <iidm:reactiveCapabilityCurve>
                    <iidm:point p="-1011" minQ="-300" maxQ="300"/>
                    <iidm:point p="0" minQ="-600" maxQ="400"/>
                    <iidm:point p="1011" minQ="-300" maxQ="300"/>
                </iidm:reactiveCapabilityCurve>
            </iidm:vscConverterStation>
        </iidm:voltageLevel>
    </iidm:substation>
    <iidm:substation id="_BUS___11_SS" name="BUS   11_SS" country="AF">
        <iidm:voltageLevel id="_BUS___11_VL" name="BUS   11_VL" nominalV="400" topologyKind="BUS_BREAKER">
            <iidm:busBreakerTopology>
                <iidm:bus id="_BUS___11_TN" v="0" angle="0"/>
            </iidm:busBreakerTopology>
            <iidm:vscConverterStation id="VSCStation2" name="VSCS2" voltageRegulatorOn="true" lossFactor="0" voltageSetpoint="400" reactivePowerSetpoint="0" bus="_BUS___11_TN" connectableBus="_BUS___11_TN" p="-0" q="-0">
                <iidm:reactiveCapabilityCurve>
                    <iidm:point p="-1011" minQ="-300" maxQ="300"/>
                    <iidm:point p="0" minQ="-600" maxQ="400"/>
                    <iidm:point p="1011" minQ="-300" maxQ="300"/>
                </iidm:reactiveCapabilityCurve>
            </iidm:vscConverterStation>
            <iidm:vscConverterStation id="VSCStation2bis" name="VSCS2bis" voltageRegulatorOn="true" lossFactor="0" voltageSetpoint="400" reactivePowerSetpoint="0" bus="_BUS___11_TN" connectableBus="_BUS___11_TN" p="-0" q="-0">
                <iidm:reactiveCapabilityCurve>
                    <iidm:point p="-1011" minQ="-300" maxQ="300"/>
                    <iidm:point p="0" minQ="-600" maxQ="400"/>
                    <iidm:point p="1011" minQ="-300" maxQ="300"/>
                </iidm:reactiveCapabilityCurve>
            </iidm:vscConverterStation>
        </iidm:voltageLevel>
    </iidm:substation>
    <iidm:line id="_BUS____1-BUS____5-1_AC" name="BUS    1-BUS    5-1" r="0.01" x="0.050000000000000003" g1="0" b1="0.00051670000000000004" g2="0" b2="0.00051670000000000004" bus1="_BUS____1_TN" connectableBus1="_BUS____1_TN" voltageLevelId1="_BUS____1_VL" bus2="_BUS____5_TN" connectableBus2="_BUS____5_TN" voltageLevelId2="_BUS____5_VL" p1="1000.1075109503109" q1="-176.15970404025251" p2="-1000.0444590746978" q2="11.116286247998042">
        <iidm:currentLimits1 permanentLimit="836.74000000000001"/>
    </iidm:line>
    <iidm:line id="_BUS____5-BUS___10-1_AC" name="BUS    5-BUS   10-1" r="0.01" x="0.050000000000000003" g1="0" b1="0" g2="0" b2="0" bus1="_BUS____5_TN" connectableBus1="_BUS____5_TN" voltageLevelId1="_BUS____5_VL" bus2="_BUS___10_TN" connectableBus2="_BUS___10_TN" voltageLevelId2="_BUS___10_VL" p1="500.04447530310625" q1="-11.116286247826386" p2="-500.02884066813095" q2="11.194459422703158">
        <iidm:currentLimits1 permanentLimit="4183.6999999999998"/>
    </iidm:line>
    <iidm:hvdcLine id="HVDCVSCLine" r="0.02" nominalV="400" convertersMode="SIDE_1_INVERTER_SIDE_2_RECTIFIER" activePowerSetpoint="100" maxP="2000" converterStation1="VSCStation2" converterStation2="VSCStation1"/>
    <iidm:hvdcLine id="HVDCVSCLinebis" r="0.02" nominalV="400" convertersMode="SIDE_1_INVERTER_SIDE_2_RECTIFIER" activePowerSetpoint="100" maxP="2000" converterStation1="VSCStation1bis" converterStation2="VSCStation2bis"/>
</iidm:network>
